reduced_cases/reduced_pglib_opf_case118_ieee.m
%% MATPOWER Case Format : Version 2
function mpc = pglib_opf_case118_ieee
mpc.version = '2';

%%-----  Power Flow Data  -----%%
%% system MVA base
mpc.baseMVA = 100.0;
%% bus data
%    bus_i    type    Pd    Qd    Gs    Bs    area    Vm    Va    baseKV    zone    Vmax    Vmin
mpc.bus = [
	1	2	1266.0	462.0	0.0	-41.0	1	1.0	0.0	138.0	1	1.06	0.94				
	23	1	20.0	3.0	0.0	0.0	1	1.0	0.0	138.0	1	1.06	0.94				
	25	2	0.0	0.0	0.0	0.0	1	1.0	0.0	138.0	1	1.06	0.94				
	42	2	954.0	315.0	0.0	35.0	1	1.0	0.0	138.0	1	1.06	0.94				
	60	1	222.0	42.0	0.0	0.0	1	1.0	0.0	138.0	1	1.06	0.94				
	65	2	0.0	0.0	0.0	0.0	1	1.0	0.0	345.0	1	1.06	0.94				
	68	1	184.0	0.0	0.0	0.0	1	1.0	0.0	345.0	1	1.06	0.94				
	69	3	132.0	54.0	0.0	0.0	1	1.0	0.0	138.0	1	1.06	0.94				
	70	2	72.0	20.0	0.0	0.0	1	1.0	0.0	138.0	1	1.06	0.94				
	72	2	12.0	0.0	0.0	0.0	1	1.0	0.0	138.0	1	1.06	0.94				
	74	2	216.0	89.0	0.0	12.0	1	1.0	0.0	138.0	1	1.06	0.94				
	79	1	39.0	32.0	0.0	20.0	1	1.0	0.0	138.0	1	1.06	0.94				
	80	2	164.0	34.0	0.0	0.0	1	1.0	0.0	138.0	1	1.06	0.94				
	81	1	0.0	0.0	0.0	0.0	1	1.0	0.0	345.0	1	1.06	0.94				
	82	1	54.0	27.0	0.0	20.0	1	1.0	0.0	138.0	1	1.06	0.94				
	83	1	76.0	42.0	0.0	10.0	1	1.0	0.0	138.0	1	1.06	0.94				
	88	1	48.0	10.0	0.0	0.0	1	1.0	0.0	138.0	1	1.06	0.94				
	89	2	0.0	0.0	0.0	0.0	1	1.0	0.0	138.0	1	1.06	0.94				
	90	2	163.0	42.0	0.0	0.0	1	1.0	0.0	138.0	1	1.06	0.94				
	91	2	80.0	13.0	0.0	0.0	1	1.0	0.0	138.0	1	1.06	0.94				
	93	1	12.0	7.000000000000001	0.0	0.0	1	1.0	0.0	138.0	1	1.06	0.94				
	94	1	110.0	62.0	0.0	0.0	1	1.0	0.0	138.0	1	1.06	0.94				
	97	1	15.0	9.0	0.0	0.0	1	1.0	0.0	138.0	1	1.06	0.94				
	99	2	79.0	18.0	0.0	0.0	1	1.0	0.0	138.0	1	1.06	0.94				
	101	1	22.0	15.0	0.0	0.0	1	1.0	0.0	138.0	1	1.06	0.94				
	103	2	23.0	16.0	0.0	0.0	1	1.0	0.0	138.0	1	1.06	0.94				
	104	2	38.0	25.0	0.0	0.0	1	1.0	0.0	138.0	1	1.06	0.94				
	105	2	31.0	26.0	0.0	20.0	1	1.0	0.0	138.0	1	1.06	0.94				
	106	1	43.0	16.0	0.0	0.0	1	1.0	0.0	138.0	1	1.06	0.94				
	107	2	50.0	12.0	0.0	6.0	1	1.0	0.0	138.0	1	1.06	0.94				
	108	1	2.0	1.0	0.0	0.0	1	1.0	0.0	138.0	1	1.06	0.94				
	109	1	8.0	3.0	0.0	0.0	1	1.0	0.0	138.0	1	1.06	0.94				
	110	2	107.0	43.0	0.0	6.0	1	1.0	0.0	138.0	1	1.06	0.94				
];

%% generator data
%    bus    Pg    Qg    Qmax    Qmin    Vg    mBase    status    Pmax    Pmin    Pc1    Pc2    Qc1min    Qc1max    Qc2min    Qc2max    ramp_agc    ramp_10    ramp_30    ramp_q    apf
mpc.gen = [
	1	0.0	5.0	15.0	-5.0	1.0	100.0	1	0.0	0.0															
	1	0.0	0.0	300.0	-300.0	1.0	100.0	1	0.0	0.0															
	1	0.0	18.5	50.0	-13.0	1.0	100.0	1	0.0	0.0															
	1	0.0	0.0	300.0	-300.0	1.0	100.0	1	0.0	0.0															
	1	252.5	26.5	200.0	-147.0	1.0	100.0	1	505.0	0.0															
	1	42.5	4.0	43.0	-35.0	1.0	100.0	1	85.0	0.0															
	1	0.0	10.0	30.0	-10.0	1.0	100.0	1	0.0	0.0															
	1	0.0	17.0	50.0	-16.0	1.0	100.0	1	0.0	0.0															
	1	0.0	8.0	24.0	-8.0	1.0	100.0	1	0.0	0.0															
	23	0.0	0.0	300.0	-300.0	1.0	100.0	1	0.0	0.0															
	25	110.5	32.0	111.00000000000001	-47.0	1.0	100.0	1	221.0	0.0															
	25	242.49999999999997	0.0	243.00000000000003	-243.00000000000003	1.0	100.0	1	484.99999999999994	0.0															
	1	0.0	0.0	300.0	-300.0	1.0	100.0	1	0.0	0.0															
	1	8.5	0.0	9.0	-9.0	1.0	100.0	1	17.0	0.0															
	1	0.0	14.000000000000002	42.0	-14.000000000000002	1.0	100.0	1	0.0	0.0															
	1	0.0	8.0	24.0	-8.0	1.0	100.0	1	0.0	0.0															
	1	0.0	8.0	24.0	-8.0	1.0	100.0	1	0.0	0.0															
	1	0.0	0.0	300.0	-300.0	1.0	100.0	1	0.0	0.0															
	42	0.0	0.0	300.0	-300.0	1.0	100.0	1	0.0	0.0															
	42	10.0	0.0	10.0	-10.0	1.0	100.0	1	20.0	0.0															
	42	111.5	13.5	112.00000000000001	-85.0	1.0	100.0	1	223.0	0.0															
	42	26.5	0.0	27.0	-27.0	1.0	100.0	1	53.0	0.0															
	42	0.0	7.5	23.0	-8.0	1.0	100.0	1	0.0	0.0															
	42	0.0	3.5000000000000004	15.0	-8.0	1.0	100.0	1	0.0	0.0															
	42	154.0	47.0	154.0	-60.0	1.0	100.0	1	308.0	0.0															
	60	97.5	0.0	98.0	-98.0	1.0	100.0	1	195.0	0.0															
	60	0.0	0.0	20.0	-20.0	1.0	100.0	1	0.0	0.0															
	65	220.5	66.5	200.0	-67.0	1.0	100.0	1	441.0	0.0															
	60	392.0	66.5	200.0	-67.0	1.0	100.0	1	784.0	0.0															
	69	591.0	0.0	300.0	-300.0	1.0	100.0	1	1182.0	0.0															
	70	0.0	11.0	32.0	-10.0	1.0	100.0	1	0.0	0.0															
	72	0.0	0.0	100.0	-100.0	1.0	100.0	1	0.0	0.0															
	70	0.0	0.0	100.0	-100.0	1.0	100.0	1	0.0	0.0															
	74	0.0	1.5	9.0	-6.0	1.0	100.0	1	0.0	0.0															
	74	0.0	7.5	23.0	-8.0	1.0	100.0	1	0.0	0.0															
	69	0.0	25.0	70.0	-20.0	1.0	100.0	1	0.0	0.0															
	80	254.5	45.0	254.99999999999997	-165.0	1.0	100.0	1	509.0	0.0															
	83	0.0	7.5	23.0	-8.0	1.0	100.0	1	0.0	0.0															
	83	5.0	0.0	5.0	-5.0	1.0	100.0	1	10.0	0.0															
	89	318.5	45.0	300.0	-210.0	1.0	100.0	1	637.0	0.0															
	90	0.0	0.0	300.0	-300.0	1.0	100.0	1	0.0	0.0															
	91	0.0	0.0	100.0	-100.0	1.0	100.0	1	0.0	0.0															
	91	0.0	3.0	9.0	-3.0	1.0	100.0	1	0.0	0.0															
	99	0.0	0.0	100.0	-100.0	1.0	100.0	1	0.0	0.0															
	99	326.5	52.5	155.0	-50.0	1.0	100.0	1	653.0	0.0															
	103	54.0	12.5	40.0	-15.0	1.0	100.0	1	108.0	0.0															
	104	0.0	7.5	23.0	-8.0	1.0	100.0	1	0.0	0.0															
	105	0.0	7.5	23.0	-8.0	1.0	100.0	1	0.0	0.0															
	107	0.0	0.0	200.0	-200.0	1.0	100.0	1	0.0	0.0															
	110	0.0	7.5	23.0	-8.0	1.0	100.0	1	0.0	0.0															
	110	39.5	0.0	40.0	-40.0	1.0	100.0	1	79.0	0.0															
	110	0.0	450.0	1000.0	-100.0	1.0	100.0	1	0.0	0.0															
	1	0.0	50.0	200.0	-100.0	1.0	100.0	1	0.0	0.0															
	68	0.0	0.0	1000.0	-1000.0	1.0	100.0	1	0.0	0.0															
];

%% branch data
%    f_bus    t_bus    r    x    b    rateA    rateB    rateC    ratio    angle    status    angmin    angmax
mpc.branch = [
	1	23	0.0342	0.159	0.0404	178.0	178.0	178.0	0	0	1	-29.999999999999996	29.999999999999996								
	23	25	0.0156	0.08	0.0864	186.0	186.0	186.0	0	0	1	-29.999999999999996	29.999999999999996								
	25	1	0.0318	0.163	0.1764	177.0	177.0	177.0	0	0	1	-29.999999999999996	29.999999999999996								
	25	1	0.00799	0.086	0.908	340.0	340.0	340.0	0	0	1	-29.999999999999996	29.999999999999996								
	23	1	0.0317	0.1153	0.1173	158.0	158.0	158.0	0	0	1	-29.999999999999996	29.999999999999996								
	1	42	0.0555	0.183	0.0466	151.0	151.0	151.0	0	0	1	-29.999999999999996	29.999999999999996								
	1	42	0.041	0.135	0.0344	151.0	151.0	151.0	0	0	1	-29.999999999999996	29.999999999999996								
	1	42	0.0224	0.0901	0.0224	166.0	166.0	166.0	0	0	1	-29.999999999999996	29.999999999999996								
	42	60	0.0317	0.145	0.0376	176.0	176.0	176.0	0	0	1	-29.999999999999996	29.999999999999996								
	42	60	0.0328	0.15	0.0388	176.0	176.0	176.0	0	0	1	-29.999999999999996	29.999999999999996								
	60	42	0.0	0.0386	0.0	760.0	760.0	760.0	0.96	0.0	1	-29.999999999999996	29.999999999999996								
	1	65	0.00901	0.0986	1.046	297.0	297.0	297.0	0	0	1	-29.999999999999996	29.999999999999996								
	60	65	0.00269	0.0302	0.38	675.0	675.0	675.0	0	0	1	-29.999999999999996	29.999999999999996								
	42	60	0.018	0.0919	0.0248	186.0	186.0	186.0	0	0	1	-29.999999999999996	29.999999999999996								
	42	60	0.018	0.0919	0.0248	186.0	186.0	186.0	0	0	1	-29.999999999999996	29.999999999999996								
	65	60	0.0	0.037	0.0	793.0	793.0	793.0	0.935	0.0	1	-29.999999999999996	29.999999999999996								
	65	68	0.00138	0.016	0.638	686.0	686.0	686.0	0	0	1	-29.999999999999996	29.999999999999996								
	42	69	0.0844	0.2778	0.07092	102.0	102.0	102.0	0	0	1	-29.999999999999996	29.999999999999996								
	42	69	0.0985	0.324	0.0828	87.0	87.0	87.0	0	0	1	-29.999999999999996	29.999999999999996								
	68	69	0.0	0.037	0.0	793.0	793.0	793.0	0.935	0.0	1	-29.999999999999996	29.999999999999996								
	69	70	0.03	0.127	0.122	170.0	170.0	170.0	0	0	1	-29.999999999999996	29.999999999999996								
	23	70	0.00221	0.4115	0.10198	72.0	72.0	72.0	0	0	1	-29.999999999999996	29.999999999999996								
	23	72	0.0488	0.196	0.0488	146.0	146.0	146.0	0	0	1	-29.999999999999996	29.999999999999996								
	70	72	0.0446	0.18	0.04444	159.0	159.0	159.0	0	0	1	-29.999999999999996	29.999999999999996								
	70	74	0.0401	0.1323	0.03368	151.0	151.0	151.0	0	0	1	-29.999999999999996	29.999999999999996								
	70	74	0.0428	0.141	0.036	151.0	151.0	151.0	0	0	1	-29.999999999999996	29.999999999999996								
	69	74	0.0405	0.122	0.124	145.0	145.0	145.0	0	0	1	-29.999999999999996	29.999999999999996								
	74	69	0.0444	0.148	0.0368	152.0	152.0	152.0	0	0	1	-29.999999999999996	29.999999999999996								
	74	69	0.0601	0.1999	0.04978	141.0	141.0	141.0	0	0	1	-29.999999999999996	29.999999999999996								
	69	79	0.00546	0.0244	0.00648	174.0	174.0	174.0	0	0	1	-29.999999999999996	29.999999999999996								
	69	80	0.017	0.0485	0.0472	141.0	141.0	141.0	0	0	1	-29.999999999999996	29.999999999999996								
	69	80	0.0294	0.105	0.0228	157.0	157.0	157.0	0	0	1	-29.999999999999996	29.999999999999996								
	79	80	0.0156	0.0704	0.0187	175.0	175.0	175.0	0	0	1	-29.999999999999996	29.999999999999996								
	68	81	0.00175	0.0202	0.808	684.0	684.0	684.0	0	0	1	-29.999999999999996	29.999999999999996								
	81	80	0.0	0.037	0.0	793.0	793.0	793.0	0.935	0.0	1	-29.999999999999996	29.999999999999996								
	69	82	0.0298	0.0853	0.08174	141.0	141.0	141.0	0	0	1	-29.999999999999996	29.999999999999996								
	82	83	0.0112	0.03665	0.03796	150.0	150.0	150.0	0	0	1	-29.999999999999996	29.999999999999996								
	83	88	0.02	0.102	0.0276	186.0	186.0	186.0	0	0	1	-29.999999999999996	29.999999999999996								
	83	89	0.0239	0.173	0.047	168.0	168.0	168.0	0	0	1	-29.999999999999996	29.999999999999996								
	88	89	0.0139	0.0712	0.01934	186.0	186.0	186.0	0	0	1	-29.999999999999996	29.999999999999996								
	89	90	0.0518	0.188	0.0528	151.0	151.0	151.0	0	0	1	-29.999999999999996	29.999999999999996								
	89	90	0.0238	0.0997	0.106	169.0	169.0	169.0	0	0	1	-29.999999999999996	29.999999999999996								
	90	91	0.0254	0.0836	0.0214	151.0	151.0	151.0	0	0	1	-29.999999999999996	29.999999999999996								
	89	91	0.0099	0.0505	0.0548	186.0	186.0	186.0	0	0	1	-29.999999999999996	29.999999999999996								
	89	91	0.0393	0.1581	0.0414	166.0	166.0	166.0	0	0	1	-29.999999999999996	29.999999999999996								
	91	93	0.0258	0.0848	0.0218	151.0	151.0	151.0	0	0	1	-29.999999999999996	29.999999999999996								
	91	94	0.0481	0.158	0.0406	151.0	151.0	151.0	0	0	1	-29.999999999999996	29.999999999999996								
	93	94	0.0223	0.0732	0.01876	151.0	151.0	151.0	0	0	1	-29.999999999999996	29.999999999999996								
	80	94	0.0356	0.182	0.0494	159.0	159.0	159.0	0	0	1	-29.999999999999996	29.999999999999996								
	82	94	0.0162	0.053	0.0544	150.0	150.0	150.0	0	0	1	-29.999999999999996	29.999999999999996								
	80	97	0.0183	0.0934	0.0254	186.0	186.0	186.0	0	0	1	-29.999999999999996	29.999999999999996								
	80	99	0.0454	0.206	0.0546	140.0	140.0	140.0	0	0	1	-29.999999999999996	29.999999999999996								
	91	99	0.0648	0.295	0.0472	98.0	98.0	98.0	0	0	1	-29.999999999999996	29.999999999999996								
	94	99	0.0178	0.058	0.0604	150.0	150.0	150.0	0	0	1	-29.999999999999996	29.999999999999996								
	94	97	0.0173	0.0885	0.024	186.0	186.0	186.0	0	0	1	-29.999999999999996	29.999999999999996								
	80	99	0.0397	0.179	0.0476	160.0	160.0	160.0	0	0	1	-29.999999999999996	29.999999999999996								
	99	101	0.0277	0.1262	0.0328	176.0	176.0	176.0	0	0	1	-29.999999999999996	29.999999999999996								
	101	91	0.0246	0.112	0.0294	176.0	176.0	176.0	0	0	1	-29.999999999999996	29.999999999999996								
	99	103	0.016	0.0525	0.0536	151.0	151.0	151.0	0	0	1	-29.999999999999996	29.999999999999996								
	99	104	0.0451	0.204	0.0541	141.0	141.0	141.0	0	0	1	-29.999999999999996	29.999999999999996								
	103	104	0.0466	0.1584	0.0407	153.0	153.0	153.0	0	0	1	-29.999999999999996	29.999999999999996								
	103	105	0.0535	0.1625	0.0408	145.0	145.0	145.0	0	0	1	-29.999999999999996	29.999999999999996								
	99	106	0.0605	0.229	0.062	124.0	124.0	124.0	0	0	1	-29.999999999999996	29.999999999999996								
	104	105	0.00994	0.0378	0.00986	161.0	161.0	161.0	0	0	1	-29.999999999999996	29.999999999999996								
	105	106	0.014	0.0547	0.01434	164.0	164.0	164.0	0	0	1	-29.999999999999996	29.999999999999996								
	105	107	0.053	0.183	0.0472	154.0	154.0	154.0	0	0	1	-29.999999999999996	29.999999999999996								
	105	108	0.0261	0.0703	0.01844	137.0	137.0	137.0	0	0	1	-29.999999999999996	29.999999999999996								
	106	107	0.053	0.183	0.0472	154.0	154.0	154.0	0	0	1	-29.999999999999996	29.999999999999996								
	108	109	0.0105	0.0288	0.0076	138.0	138.0	138.0	0	0	1	-29.999999999999996	29.999999999999996								
	103	110	0.03906	0.1813	0.0461	159.0	159.0	159.0	0	0	1	-29.999999999999996	29.999999999999996								
	109	110	0.0278	0.0762	0.0202	138.0	138.0	138.0	0	0	1	-29.999999999999996	29.999999999999996								
];

%%-----  OPF Data  -----%%
%% cost data
%    1    startup    shutdown    n    x1    y1    ...    xn    yn
%    2    startup    shutdown    n    c(n-1)    ...    c0
mpc.gencost = [
	2	0.0	0.0	2	0.0	0.0
	2	0.0	0.0	2	0.0	0.0
	2	0.0	0.0	2	0.0	0.0
	2	0.0	0.0	2	0.0	0.0
	2	0.0	0.0	2	24.983420000000002	0.0
	2	0.0	0.0	2	124.581564	0.0
	2	0.0	0.0	2	0.0	0.0
	2	0.0	0.0	2	0.0	0.0
	2	0.0	0.0	2	0.0	0.0
	2	0.0	0.0	2	0.0	0.0
	2	0.0	0.0	2	28.948321	0.0
	2	0.0	0.0	2	22.22098	0.0
	2	0.0	0.0	2	0.0	0.0
	2	0.0	0.0	2	25.993982000000003	0.0
	2	0.0	0.0	2	0.0	0.0
	2	0.0	0.0	2	0.0	0.0
	2	0.0	0.0	2	0.0	0.0
	2	0.0	0.0	2	0.0	0.0
	2	0.0	0.0	2	0.0	0.0
	2	0.0	0.0	2	24.202306	0.0
	2	0.0	0.0	2	16.673942	0.0
	2	0.0	0.0	2	27.277343	0.0
	2	0.0	0.0	2	0.0	0.0
	2	0.0	0.0	2	0.0	0.0
	2	0.0	0.0	2	24.861868	0.0
	2	0.0	0.0	2	16.056042	0.0
	2	0.0	0.0	2	0.0	0.0
	2	0.0	0.0	2	34.781778	0.0
	2	0.0	0.0	2	32.668781	0.0
	2	0.0	0.0	2	25.758442000000002	0.0
	2	0.0	0.0	2	0.0	0.0
	2	0.0	0.0	2	0.0	0.0
	2	0.0	0.0	2	0.0	0.0
	2	0.0	0.0	2	0.0	0.0
	2	0.0	0.0	2	0.0	0.0
	2	0.0	0.0	2	0.0	0.0
	2	0.0	0.0	2	24.600772	0.0
	2	0.0	0.0	2	0.0	0.0
	2	0.0	0.0	2	34.072633	0.0
	2	0.0	0.0	2	24.605102	0.0
	2	0.0	0.0	2	0.0	0.0
	2	0.0	0.0	2	0.0	0.0
	2	0.0	0.0	2	0.0	0.0
	2	0.0	0.0	2	0.0	0.0
	2	0.0	0.0	2	12.61217	0.0
	2	0.0	0.0	2	28.649471	0.0
	2	0.0	0.0	2	0.0	0.0
	2	0.0	0.0	2	0.0	0.0
	2	0.0	0.0	2	0.0	0.0
	2	0.0	0.0	2	0.0	0.0
	2	0.0	0.0	2	35.043401	0.0
	2	0.0	0.0	2	0.0	0.0
	2	0.0	0.0	2	0.0	0.0
	2	0.0	0.0	2	0.0	0.0
];

